10
SU1.xyz
CM           0.00000           0.00000            0.00000
CM           0.00000           0.00000            4.50000
CM           0.00000           0.00000            9.00000
CM           0.00000           0.00000           13.50000
OA           0.00000           0.00000           18.00000
OA           0.00000           0.00000           22.50000
CM           0.00000          -9.00000            4.50000
CM           0.00000          -4.50000            4.50000
CM           0.00000           4.50000            4.50000
CM           0.00000           9.00000            4.50000
